*SPEF "IEEE 1481-1998"
*DESIGN "top"
*DATE "Sun Sep 07 06:06:00 2025"
*VENDOR "ExampleGenerator"
*PROGRAM "Manual"
*VERSION "1.0"
*DIVIDER /
*DELIMITER :
*BUS_DELIMITER [ ]
*T_UNIT 1.0 PS
*C_UNIT 1.0 PF
*R_UNIT 1.0 OHM
*L_UNIT 1.0 HENRY
*POWER_NETS VDD
*GROUND_NETS VSS

*PORTS
in1 I
in2 I
clk1 I
clk2 I
clk3 I
out O

*D_NET in1 0.275
*CONN
*P in1 I *C 10.000000 90.000000
*I r1:D I *C 58.000000 80.000000
*CAP
1 in1 0.243
2 r1:D 0.032
*RES
1 in1 r1:D 40
*END

*D_NET in2 0.275
*CONN
*P in2 I *C 10.000000 70.000000
*I r2:D I *C 58.000000 60.000000
*CAP
1 in2 0.243
2 r2:D 0.032
*RES
1 in2 r2:D 40
*END

*D_NET clk1 0.275
*CONN
*P clk1 I *C 10.000000 50.000000
*I r1:CK I *C 60.000000 82.000000
*CAP
1 clk1 0.243
2 r1:CK 0.032
*RES
1 clk1 r1:CK 40
*END

*D_NET clk2 0.275
*CONN
*P clk2 I *C 10.000000 40.000000
*I r2:CK I *C 60.000000 62.000000
*CAP
1 clk2 0.243
2 r2:CK 0.032
*RES
1 clk2 r2:CK 40
*END

*D_NET clk3 0.275
*CONN
*P clk3 I *C 10.000000 30.000000
*I r3:CK I *C 160.000000 52.000000
*CAP
1 clk3 0.243
2 r3:CK 0.032
*RES
1 clk3 r3:CK 40
*END

*D_NET r1q 0.275
*CONN
*I r1:Q O *C 62.000000 80.000000
*I u2:A1 I *C 118.000000 72.000000
*CAP
1 r1:Q 0.243
2 u2:A1 0.032
*RES
1 r1:Q u2:A1 40
*END

*D_NET r2q 0.275
*CONN
*I r2:Q O *C 62.000000 60.000000
*I u1:A I *C 98.000000 60.000000
*CAP
1 r2:Q 0.243
2 u1:A 0.032
*RES
1 r2:Q u1:A 40
*END

*D_NET u1z 0.275
*CONN
*I u1:Z O *C 102.000000 60.000000
*I u2:A2 I *C 118.000000 68.000000
*CAP
1 u1:Z 0.243
2 u2:A2 0.032
*RES
1 u1:Z u2:A2 40
*END

*D_NET u2z 0.275
*CONN
*I u2:ZN O *C 122.000000 70.000000
*I r3:D I *C 158.000000 50.000000
*CAP
1 u2:ZN 0.243
2 r3:D 0.032
*RES
1 u2:ZN r3:D 40
*END

*D_NET out 0.275
*CONN
*I r3:Q O *C 162.000000 50.000000
*P out O *C 190.000000 50.000000
*CAP
1 r3:Q 0.243
2 out 0.032
*RES
1 r3:Q out 40
*END